<?xml version="1.0" encoding="UTF-8"?>

<!-- generated on 2024-10-12 14:57:43 by Eclipse SUMO sumo Version 1.21.0
-->

<sumoConfiguration xmlns:xsi="http://www.w3.org/2001/XMLSchema-instance" xsi:noNamespaceSchemaLocation="http://sumo.dlr.de/xsd/sumoConfiguration.xsd">

    <input>
        <net-file value="test2.net.xml"/>
        <route-files value="test2.rou.xml"/>
        <additional-files value="test2.add.xml"/>
    </input>

</sumoConfiguration>
