<?xml version="1.0" encoding="UTF-8"?>

<!-- generated on 2024-10-20 10:56:57 by Eclipse SUMO netedit Version 1.21.0
<neteditConfiguration xmlns:xsi="http://www.w3.org/2001/XMLSchema-instance" xsi:noNamespaceSchemaLocation="http://sumo.dlr.de/xsd/neteditConfiguration.xsd">

    <input>
        <sumocfg-file value="C:\Users\krist\sumo\demo.sumocfg"/>
        <additional-files value="C:\Users\krist\sumo\demo.add.xml"/>
        <route-files value="C:\Users\krist\sumo\demo.rou.xml"/>
        <sumo-net-file value="C:\Users\krist\sumo\demo_network.net.xml"/>
    </input>

    <output>
        <output-file value="C:\Users\krist\sumo\demo_network.net.xml"/>
    </output>

    <processing>
        <offset.disable-normalization value="true"/>
    </processing>

    <junctions>
        <no-turnarounds value="true"/>
    </junctions>

    <netedit>
        <new-network value="false"/>
    </netedit>

</neteditConfiguration>
-->

<net version="1.20" junctionCornerDetail="5" limitTurnSpeed="5.50" xmlns:xsi="http://www.w3.org/2001/XMLSchema-instance" xsi:noNamespaceSchemaLocation="http://sumo.dlr.de/xsd/net_file.xsd">

    <location netOffset="0.00,0.00" convBoundary="-424.01,-769.59,623.43,189.15" origBoundary="10000000000.00,10000000000.00,-10000000000.00,-10000000000.00" projParameter="!"/>

    <edge id=":J14_0" function="internal">
        <lane id=":J14_0_0" index="0" speed="13.89" length="14.41" shape="42.80,-311.92 42.75,-326.33"/>
    </edge>
    <edge id=":J14_1" function="internal">
        <lane id=":J14_1_0" index="0" speed="13.89" length="14.42" shape="51.60,-317.52 37.18,-317.52"/>
    </edge>
    <edge id=":J14_2" function="internal">
        <lane id=":J14_2_0" index="0" speed="13.89" length="14.43" shape="45.95,-326.35 46.00,-311.92"/>
    </edge>
    <edge id=":J14_3" function="internal">
        <lane id=":J14_3_0" index="0" speed="13.89" length="14.42" shape="37.18,-320.72 51.60,-320.72"/>
    </edge>

    <edge id="-E10" from="J14" to="J17" priority="-1">
        <lane id="-E10_0" index="0" speed="13.89" length="443.26" shape="42.75,-326.33 39.81,-769.58"/>
    </edge>
    <edge id="-E11" from="J14" to="J18" priority="-1">
        <lane id="-E11_0" index="0" speed="13.89" length="461.19" shape="37.18,-317.52 -424.01,-317.52"/>
    </edge>
    <edge id="-E8" from="J14" to="J15" priority="-1">
        <lane id="-E8_0" index="0" speed="13.89" length="501.08" shape="46.00,-311.92 46.00,189.15"/>
    </edge>
    <edge id="-E9" from="J14" to="J16" priority="-1">
        <lane id="-E9_0" index="0" speed="13.89" length="571.84" shape="51.60,-320.72 623.43,-320.72"/>
    </edge>
    <edge id="E10" from="J17" to="J14" priority="-1">
        <lane id="E10_0" index="0" speed="13.89" length="443.26" shape="43.01,-769.60 45.95,-326.35"/>
    </edge>
    <edge id="E11" from="J18" to="J14" priority="-1">
        <lane id="E11_0" index="0" speed="13.89" length="461.19" shape="-424.01,-320.72 37.18,-320.72"/>
    </edge>
    <edge id="E8" from="J15" to="J14" priority="-1">
        <lane id="E8_0" index="0" speed="13.89" length="501.08" shape="42.80,189.15 42.80,-311.92"/>
    </edge>
    <edge id="E9" from="J16" to="J14" priority="-1">
        <lane id="E9_0" index="0" speed="13.89" length="571.84" shape="623.43,-317.52 51.60,-317.52"/>
    </edge>

    <tlLogic id="J14" type="static" programID="0" offset="0">
        <phase duration="42" state="rGrG"/>
        <phase duration="3"  state="ryry"/>
        <phase duration="42" state="GrGr"/>
        <phase duration="3"  state="yryr"/>
    </tlLogic>

    <junction id="J14" type="traffic_light" x="44.40" y="-319.12" incLanes="E8_0 E9_0 E10_0 E11_0" intLanes=":J14_0_0 :J14_1_0 :J14_2_0 :J14_3_0" shape="41.20,-311.92 47.60,-311.92 48.04,-314.14 48.60,-314.92 49.38,-315.48 50.38,-315.81 51.60,-315.92 51.60,-322.32 49.36,-322.77 48.58,-323.33 48.01,-324.12 47.67,-325.13 47.55,-326.36 41.15,-326.32 40.72,-324.10 40.17,-323.32 39.40,-322.77 38.40,-322.43 37.18,-322.32 37.18,-315.92 39.41,-315.48 40.19,-314.92 40.75,-314.14 41.09,-313.14">
        <request index="0" response="1010" foes="1010" cont="0"/>
        <request index="1" response="0000" foes="0101" cont="0"/>
        <request index="2" response="1010" foes="1010" cont="0"/>
        <request index="3" response="0000" foes="0101" cont="0"/>
    </junction>
    <junction id="J15" type="dead_end" x="44.40" y="189.15" incLanes="-E8_0" intLanes="" shape="44.40,189.15 47.60,189.15 44.40,189.15"/>
    <junction id="J16" type="dead_end" x="623.43" y="-319.12" incLanes="-E9_0" intLanes="" shape="623.43,-319.12 623.43,-322.32 623.43,-319.12"/>
    <junction id="J17" type="dead_end" x="41.41" y="-769.59" incLanes="-E10_0" intLanes="" shape="41.41,-769.59 38.21,-769.57 41.41,-769.59"/>
    <junction id="J18" type="dead_end" x="-424.01" y="-319.12" incLanes="-E11_0" intLanes="" shape="-424.01,-319.12 -424.01,-315.92 -424.01,-319.12"/>

    <connection from="E10" to="-E8" fromLane="0" toLane="0" via=":J14_2_0" tl="J14" linkIndex="2" dir="s" state="o"/>
    <connection from="E11" to="-E9" fromLane="0" toLane="0" via=":J14_3_0" tl="J14" linkIndex="3" dir="s" state="O"/>
    <connection from="E8" to="-E10" fromLane="0" toLane="0" via=":J14_0_0" tl="J14" linkIndex="0" dir="s" state="o"/>
    <connection from="E9" to="-E11" fromLane="0" toLane="0" via=":J14_1_0" tl="J14" linkIndex="1" dir="s" state="O"/>

    <connection from=":J14_0" to="-E10" fromLane="0" toLane="0" dir="s" state="M"/>
    <connection from=":J14_1" to="-E11" fromLane="0" toLane="0" dir="s" state="M"/>
    <connection from=":J14_2" to="-E8" fromLane="0" toLane="0" dir="s" state="M"/>
    <connection from=":J14_3" to="-E9" fromLane="0" toLane="0" dir="s" state="M"/>

</net>
