<?xml version="1.0" encoding="UTF-8"?>

<!-- generated on 2024-10-20 10:56:57 by Eclipse SUMO sumo Version 1.21.0
-->

<sumoConfiguration xmlns:xsi="http://www.w3.org/2001/XMLSchema-instance" xsi:noNamespaceSchemaLocation="http://sumo.dlr.de/xsd/sumoConfiguration.xsd">

    <input>
        <net-file value="demo_network.net.xml"/>
        <additional-files value="demo.add.xml"/>
    </input>

</sumoConfiguration>
